LTspice 24.0.12 for Windows
Circuit: * C:\Users\jonas\Documents\ECOLE\magnetic_chess\simulation\flyback_diodes2.asc
Start Time: Wed Jul 31 20:08:06 2024
Warning: Multiple definitions of model "2scr375p" Type: BJT
Warning: Multiple definitions of model "bc857b" Type: BJT
Warning: Multiple definitions of model "bc847c" Type: BJT
Warning: Multiple definitions of model "bc847b" Type: BJT
solver = Normal
Maximum thread count: 16
tnom = 27
temp = 27
method = modified trap
Direct Newton iteration for .op point succeeded.
Total elapsed time: 1.036 seconds.

